32
 Etot =  -5168.323436 spin-pol = 0.0000
C   -1.85813109   -0.56076200    1.83784409   
C    0.59611072    0.94859120    2.00916504   
C   -0.59557947    1.57813876    1.56457329   
C   -1.85828927    0.88638285    1.70453230   
C    1.85894611    1.31188459    1.40427261   
C   -2.69037048   -1.06413424    0.75220093   
C   -3.33690651   -0.00008105    0.00028900   
C   -2.69096787    1.18353141    0.54564940   
C   -1.85873778   -1.92039152   -0.08425122   
C   -0.59548191   -2.14488590    0.58469851   
C    0.59569725   -2.21529101   -0.18340166   
C   -1.85927775   -1.31179671   -1.40420796   
C   -0.59636245   -0.94845453   -2.00909263   
C    0.59524166   -1.57797082   -1.56416965   
C   -2.69170130   -0.11922403   -1.29666660   
C    1.85913025   -1.87278304    0.43336669   
C    2.69059448   -1.18307888   -0.54536433   
C    1.85822572   -0.88636639   -1.70441388   
C    1.85908047   -1.03309115    1.61970986   
C    0.59627448   -0.56599335    2.14854268   
C   -0.59522753   -1.26633946    1.82628551   
C    2.69095740    0.11953954    1.29652721   
C    3.33667592    0.00040273   -0.00014744   
C    2.69026151    1.06456625   -0.75203974   
C   -0.59657302    0.56636020   -2.14856780   
C    0.59490041    1.26685962   -1.82614570   
C    1.85812994    0.56137817   -1.83788767   
C   -1.85955445    1.03361793   -1.61978619   
C    0.59523736    2.14532020   -0.58456325   
C   -0.59600689    2.21573084    0.18358545   
C   -1.85949775    1.87316317   -0.43314851   
C    1.85860963    1.92087097    0.08445300   
