32
   Etot  = -5171.019829 eV,   spin polarization = 0.000
C	-2.84493152		0.00037407		-0.00040225
C	-2.38459589		-1.30672801		-0.43624703
C	-1.71841962		0.34620977		-2.00404284
C	-2.38452605		1.03090846		-0.91407761
C	0.31606275		-2.32144334		-0.72311562
C	-0.31587498		-1.59934766		-1.83144152
C	-1.66780671		-1.12344418		-1.66383455
C	-1.66813212		2.00264738		-0.14169845
C	-0.42898675		0.74070209		-2.37718088
C	0.31626665		1.78787897		-1.64962096
C	-0.31604229		2.38662396		-0.46988154
C	0.42916472		-0.48144722		-2.44202896
C	-1.71870743		1.56276094		1.30164734
C	-2.38521777		0.27633111		1.34949975
C	-1.6682592		-0.87852838		1.80499366
C	-0.42918681		1.68833755		1.82964241
C	0.31573855		0.53492772		2.37276664
C	-0.31600503		-0.78609892		2.3012335
C	0.4287328		2.35617702		0.80396845
C	-0.42861343		-2.42787747		0.54716548
C	-1.71838325		-1.90870011		0.70201413
C	1.71795552		-1.69160208		1.12730919
C	0.42855269		-1.87365272		1.6380575
C	2.38406206		-0.41788337		1.31145159
C	1.66777303		0.6804992		1.88810266
C	2.84289013		0.00065104		0.00016621
C	2.38400641		1.3452553		-0.29297106
C	1.71789651		1.82238523		0.90197108
C	1.66837791		1.29555037		-1.53280131
C	1.66828231		-1.97420986		-0.35504023
C	2.38426643		-0.92550602		-1.01781511
C	1.71827543		-0.12936662		-2.02853505
